%mem=2gb
%NProcShared=2
#n B3LYP/6-31G(d) Opt Pop=ESP scf=(direct,tight)

 Ethanediol

0 1
O  
C   1 B1
C   2 B2 1 A2
O   3 B3 2 A3 1 D3
H   1 B4 2 A4 3 D4
H   2 B5 1 A5 3 D5
H   2 B6 1 A6 3 D6
H   3 B7 2 A7 1 D7
H   3 B8 2 A8 1 D8
H   4 B9 3 A9 2 D9
Variables:
B1        1.42256
B2        1.52280
A2      110.09168
B3        1.42126
A3      110.10491
D3      179.91184
B4        0.97242
A4      106.63334
D4      180.11892
B5        1.09506
A5      109.12188
D5      238.67405
B6        1.09498
A6      109.07382
D6      121.30437
B7        1.09535
A7      110.40740
D7       59.31296
B8        1.09593
A8      110.38765
D8      300.44993
B9        0.97324
A9      106.62291
D9      180.14124

