%mem=2gb
%NProcShared=20
#n B3LYP/6-31G(d) Opt Pop=ESP scf=(direct,tight)

 3DEG

0 1
C         -5.84487        2.19031       -0.20192
C         -4.94583        2.85333        0.84438
C          2.67391        2.78654       -1.48874
O          3.19661        1.54242       -1.59828
H          2.70906        0.73269       -1.41018
O          3.39121        3.74008       -1.74999
C          1.25883        3.02777       -1.06064
C          0.38090        1.96864       -0.75277
H          0.69230        0.93831       -0.81292
C         -0.93420        2.22812       -0.35670
H         -1.58491        1.39359       -0.12687
C         -1.40474        3.54685       -0.25633
C         -0.53473        4.60580       -0.56134
H         -0.87214        5.63253       -0.49328
C         -2.80384        3.80894        0.16626
O         -3.20878        4.95949        0.26686
O         -3.62980        2.75997        0.42684
C          0.78049        4.34927       -0.95945
H          1.42670        5.18736       -1.18881
H         -5.04379        2.31226        1.80934
H         -5.25833        3.90581        1.00981
C         -7.99434        3.16771        0.40984
O         -7.16156        2.10979        0.21511
O         -7.60627        4.30952        0.20174
C         -9.39108        2.92503        0.85063
C         -9.84846        1.61159        1.05204
H         -9.18900        0.76790        0.89190
C        -11.16407        1.37297        1.45801
H        -11.49085        0.35086        1.60286
C        -12.04820        2.44300        1.67252
C        -11.59101        3.75818        1.47470
H        -12.25281        4.60042        1.63374
C        -13.44584        2.18346        2.09987
O        -14.21613        3.11408        2.28845
O        -13.87575        0.91509        2.27943
H        -14.78460        0.72777        2.55420
C        -10.27476        3.99705        1.06668
H         -9.94756        5.01870        0.91909
H         -5.48022        1.15302       -0.36031
H         -5.78050        2.73018       -1.17208

