%mem=2gb
%NProcShared=20
#n B3LYP/6-31G(d) Opt Pop=ESP scf=(direct,tight)

 2MELF

0 1
N        518.33983      677.46377      751.44388
C        517.00296      677.36142      751.21993
N        516.23796      676.33313      751.83548
N        516.39482      678.24033      750.38269
C        517.11472      679.22049      749.77494
N        516.48189      680.14954      748.90874
N        518.45015      679.31169      750.00048
C        519.06796      678.43401      750.83453
N        520.46824      678.51144      751.06953
C        516.80208      675.39603      752.78640
H        515.23857      676.24703      751.59606
C        521.32036      679.49955      750.44008
H        520.90092      677.82924      751.71054
O        522.29812      678.84295      749.68373
H        521.80559      680.10228      751.23913
H        520.74016      680.17904      749.77892
H        522.88770      679.55243      749.31764
C        515.05871      680.09640      748.65480
H        517.05196      680.88135      748.45735
O        514.69911      681.12540      747.77549
H        514.51543      680.22245      749.61819
H        514.80772      679.11249      748.19963
H        513.71643      681.05453      747.65614
C        514.56427      672.20954      754.54089
N        513.78079      672.45728      755.69795
C        513.01783      671.40384      756.33143
O        512.33700      671.91801      757.44194
H        511.82517      671.15940      757.82607
H        513.71369      670.59995      756.66024
H        512.28393      670.99868      755.59910
H        513.75427      673.41113      756.09004
N        514.62055      670.96391      753.99888
C        515.36721      670.73334      752.88914
N        515.42788      669.42660      752.33897
H        514.89461      668.66766      752.79028
C        516.22907      669.13829      751.16921
H        517.29224      669.38283      751.39111
O        516.11796      667.78039      750.84538
H        516.70551      667.63649      750.05855
H        515.86435      669.75550      750.31814
N        516.05630      671.75556      752.31772
C        516.00805      673.00177      752.85395
N        516.73777      674.05564      752.24043
N        515.26130      673.22438      753.96813
H        516.24198      675.48477      753.74060
H        517.86461      675.62555      753.01007
H        517.26165      673.85569      751.37490

