%mem=2gb
%NProcShared=20
#n B3LYP/6-31G(d) Opt Pop=ESP scf=(direct)

 4MELF

0 1
N        517.89488      678.63421      751.88846
C        516.65924      678.10513      751.68624
N        516.36635      676.76748      752.06839
N        515.69335      678.86226      751.10573
C        515.95531      680.14061      750.72499
N        514.95086      680.94015      750.11386
N        517.19287      680.65995      750.92930
C        518.16545      679.90966      751.51146
N        519.45757      680.45111      751.73678
C        517.34676      675.88711      752.67199
H        515.41686      676.40126      751.90122
C        513.60494      680.46178      749.86713
H        515.18850      681.90263      749.82975
C        516.56396      671.86039      753.84998
N        516.08174      671.57120      755.15578
N        516.77260      670.84551      752.97236
C        517.23344      671.10177      751.72108
N        517.44430      670.02566      750.81655
H        517.24383      669.06474      751.13241
C        517.92880      670.22038      749.46408
N        517.48730      672.38433      751.34925
C        517.28193      673.40606      752.21897
N        517.55121      674.74043      751.80942
N        516.81955      673.13969      753.46873
N        508.93851      684.34547      750.82548
C        509.82528      683.54227      750.06027
N        509.70139      683.50334      748.70904
N        510.80002      682.81453      750.66786
C        510.54509      682.74087      747.96455
N        510.42008      682.69506      746.55193
C        511.64703      682.05050      749.93109
N        511.51534      682.01720      748.57852
N        512.66068      681.29642      750.58371
N        521.19907      680.90318      745.43994
C        521.29088      680.71660      746.84480
N        520.47675      681.40318      747.68941
N        522.20418      679.84845      747.34963
C        520.57424      681.22174      749.03079
C        522.30967      679.65887      748.69121
H        519.04371      682.61551      749.50980
N        519.72239      681.94840      749.90472
N        521.49204      680.35021      749.52644
N        523.26415      678.75300      749.24386
C        519.79544      681.80200      751.34261
H        520.82035      682.05920      751.68783
H        520.16769      679.87620      752.21482
H        513.47157      679.41289      750.20417
H        513.42290      680.48050      748.77266
H        512.72937      681.34331      751.61166
H        516.97950      675.58891      753.67599
H        518.32320      676.39440      752.81621
H        517.90479      674.90334      750.85440
C        520.24623      681.81815      744.85058
H        521.83796      680.37986      744.82223
C        509.39853      683.45238      745.85951
H        511.07288      682.10795      746.01037
C        509.02768      684.42288      752.26724
H        508.21663      684.89819      750.33873
C        515.83327      672.59840      756.14861
H        515.89834      670.58882      755.41001
C        524.20748      677.94268      748.48458
H        523.29544      678.66422      750.27073
O        519.12284      669.51281      749.28085
H        518.08333      671.29251      749.21075
H        517.17265      669.82870      748.75219
H        519.81863      670.00210      749.79275
O        516.64223      672.37915      757.27077
H        514.75851      672.58920      756.43858
H        516.04786      673.61523      755.76025
H        516.23655      671.62224      757.76889
O        508.80730      683.15583      752.82165
H        508.25239      685.12915      752.63988
H        510.03647      684.79777      752.55079
H        508.89333      683.26707      753.80400
O        509.47331      683.22260      744.47915
H        509.50839      684.53974      746.07405
H        508.39562      683.13431      746.21516
H        510.26954      683.71856      744.15404
O        518.94410      681.40919      745.16449
H        520.37821      681.81522      743.74546
H        520.43388      682.84268      745.24274
H        518.33892      682.07797      744.75068
O        524.10929      678.13141      747.09864
H        524.06041      676.86777      748.73865
H        525.23982      678.20485      748.79709
H        523.42148      677.49454      746.77095

