%mem=2gb
%NProcShared=20
#n B3LYP/6-31G(d) Opt Pop=ESP scf=(direct,tight)

 MELFS1

0 1
N        517.99000      678.50000      750.79000
C        517.09000      679.48000      751.03000
N        516.27000      679.43000      752.19000
N        516.97000      680.52000      750.17000
C        517.75000      680.58000      749.06000
N        517.63000      681.67000      748.15000
N        518.65000      679.60000      748.82000
C        518.78000      678.55000      749.68000
N        519.72000      677.52000      749.43000
C        516.36000      678.34000      753.14000
H        515.59000      680.19000      752.36000
O        515.45000      678.54000      754.18000
H        517.40000      678.31000      753.55000
H        516.13000      677.39000      752.61000
H        515.56000      677.77000      754.79000
C        520.57000      677.54000      748.26000
H        519.79000      676.74000      750.10000
O        521.40000      676.41000      748.26000
H        521.20000      678.46000      748.29000
H        519.93000      677.54000      747.35000
H        521.96000      676.48000      747.45000
C        516.68000      682.73000      748.37000
H        518.23000      681.69000      747.31000
O        516.77000      683.67000      747.33000
H        516.91000      683.23000      749.34000
H        515.65000      682.31000      748.40000
H        516.10000      684.37000      747.53000

