%NProcShared=20
%Chk=epon-828_deg2.chk
#n B3LYP/6-31G(d) Opt Pop=ESP scf=(direct,tight)

 EPON-828_DEG2

0 1
O         20.31892       24.55640       15.17770
C         18.33213       24.56139       16.51140
C         19.58064       25.33258       16.08383
C         20.47109       25.64502       17.29889
O         19.80627       26.40010       18.25191
C         19.42703       27.70318       18.14121
C         18.60368       28.24055       19.13957
C         18.17534       29.58802       19.08604
C         18.60493       30.38289       18.00294
C         19.42907       29.85287       17.01086
C         19.84134       28.52316       17.07382
C         17.27083       30.21649       20.16546
C         15.93384       30.61742       19.48886
C         16.89957       29.23723       21.30966
C         18.02644       31.40729       20.78948
C         19.26903       31.17923       21.41664
C         19.98362       32.23089       21.98927
C         19.48046       33.52981       21.94681
C         18.24612       33.79082       21.32104
C         17.52783       32.73094       20.75194
O         17.71050       35.04088       21.25383
C         18.33309       36.23011       21.59722
C         19.45316       36.59677       20.60343
O         20.07288       37.79987       20.98198
C         18.92195       36.69403       19.17182
H         17.70664       24.32308       15.62520
H         17.72356       25.15913       17.22280
H         19.27372       26.28511       15.59756
H         21.40847       26.15602       16.98993
H         20.76528       24.68149       17.76813
H         18.30575       27.59057       19.94853
H         18.30485       31.42051       17.93142
H         19.75265       30.47863       16.18903
H         20.48545       28.14562       16.29289
H         16.08562       31.34660       18.66582
H         15.23129       31.06423       20.22549
H         15.43903       29.72241       19.05252
H         16.33556       28.36220       20.91974
H         16.25447       29.74631       22.05861
H         17.79691       28.86249       21.84484
H         19.68676       30.18151       21.45927
H         20.93435       32.03714       22.46914
H         20.05610       34.32106       22.40499
H         16.58325       32.95983       20.28184
H         18.71879       36.17814       22.63806
H         17.56732       37.03479       21.57337
H         20.22870       35.80492       20.61250
H         18.14169       37.48051       19.08892
H         19.75049       36.92364       18.46886
H         19.87707       24.64548       14.29276
H         19.38822       38.51851       20.94419

