%NProcShared=20
#n B3LYP/6-31G(d) Opt Pop=ESP scf=(direct,tight)

 EPON_DEG0

0 1
O         25.76000       31.88000       20.98000
C         26.38000       33.00000       20.31000
C         25.45000       33.23000       21.52000
C         24.01000       33.73000       21.22000
O         23.09000       32.75000       20.64000
C         21.67000       32.91000       20.54000
C         20.93000       31.84000       19.86000
C         19.67000       32.05000       19.16000
C         19.04000       33.28000       19.53000
C         19.78000       34.30000       20.34000
C         21.13000       34.11000       20.68000
C         18.84000       31.01000       18.36000
C         18.38000       31.76000       17.06000
C         19.81000       29.93000       17.61000
C         17.66000       30.23000       19.12000
C         17.79000       29.79000       20.52000
C         16.69000       29.30000       21.27000
C         15.35000       29.13000       20.65000
C         15.28000       29.50000       19.30000
C         16.39000       30.09000       18.56000
O         14.31000       29.25000       18.33000
C         13.39000       28.12000       18.55000
C         13.10000       27.19000       17.28000
O         11.92000       26.34000       17.40000
C         13.26000       25.65000       17.39000
H         25.96000       33.15000       19.25000
H         27.42000       33.43000       20.31000
H         25.74000       33.54000       22.57000
H         24.05000       34.45000       20.32000
H         23.52000       34.36000       21.95000
H         21.73000       31.09000       19.59000
H         18.09000       33.30000       19.10000
H         19.37000       35.15000       20.82000
H         21.61000       35.02000       21.06000
H         17.34000       32.10000       17.16000
H         18.51000       31.30000       16.15000
H         18.96000       32.65000       17.05000
H         19.50000       29.04000       17.06000
H         20.33000       29.61000       18.51000
H         20.71000       30.23000       17.10000
H         18.61000       30.09000       21.09000
H         16.84000       28.87000       22.25000
H         14.49000       28.75000       21.20000
H         16.23000       30.44000       17.58000
H         12.51000       28.61000       19.12000
H         13.99000       27.78000       19.37000
H         13.49000       27.69000       16.38000
H         13.49000       25.11000       16.43000
H         13.40000       25.04000       18.37000

