%NProcShared=20
%Chk=epon-828_deg1_A2.chk
#n B3LYP/6-31G(d) Opt Pop=ESP scf=(direct,tight)

 EPON_828_DEG1_A2

0 1
O         26.14733       33.82258       19.28546
C         25.33883       33.54875       20.41660
C         25.42457       32.62424       19.26310
C         24.27326       32.66502       18.26306
O         23.37786       31.65285       18.56362
C         22.07662       31.76442       18.95212
C         21.30829       30.59417       19.00454
C         19.95174       30.61429       19.40573
C         19.38179       31.86377       19.74432
C         20.14429       33.03081       19.69915
C         21.48192       32.99017       19.31144
C         19.13749       29.29549       19.43797
C         19.07898       28.75269       17.98653
C         19.86819       28.23255       20.29948
C         17.72125       29.48336       20.04873
C         17.59543       29.89453       21.39431
C         16.34101       30.06922       21.97564
C         15.18184       29.83502       21.23926
C         15.26905       29.41663       19.89594
C         16.53317       29.24881       19.31333
O         14.17595       29.17651       19.11851
C         12.84513       29.09804       19.50129
C         12.02604       30.21720       18.84365
O         12.08143       30.13020       17.44137
C         12.46465       31.60179       19.32640
H         26.08590       31.73791       19.36147
H         24.68235       32.47662       17.24879
H         23.81007       33.66880       18.22002
H         21.78233       29.66315       18.72687
H         18.34771       31.95567       20.03722
H         19.69213       33.97736       19.96693
H         22.03082       33.91769       19.30298
H         18.58135       29.48439       17.31391
H         18.53396       27.78474       17.94530
H         20.09307       28.56355       17.57653
H         19.27960       27.28973       20.32952
H         20.02179       28.57993       21.34152
H         20.86755       27.97889       19.89088
H         18.47418       30.09113       21.99383
H         16.26718       30.39254       23.00613
H         14.23547       29.99453       21.72948
H         16.56530       28.93333       18.28179
H         12.69858       29.13313       20.59621
H         12.44769       28.11624       19.16722
H         10.96631       30.08344       19.14984
H         13.52232       31.80615       19.05525
H         11.81672       32.38600       18.88099
H         26.01627       33.37163       21.27739
H         24.53632       34.31561       20.44739
H         13.01179       30.33189       17.15904

