%NProcShared=20
%Chk=hdde_deg1_E1.chk
#n B3LYP/6-31G(d) Opt Pop=ESP scf=(direct,tight)

 HDDE_DEG1_E1

0 1
C         21.85728       30.93429       24.17367
O         23.18234       31.67820       22.30717
C         22.70406       30.53186       22.96368
C         23.87184       29.61796       23.36030
O         23.36871       28.43516       23.94515
C         24.44279       27.59544       24.31276
C         23.89737       26.30748       24.93310
C         23.03304       25.51649       23.94110
C         22.50918       24.22416       24.57845
C         21.64716       23.43268       23.58788
C         21.11959       22.14246       24.22276
O         20.27674       21.46012       23.31314
C         20.98984       20.45056       22.63131
C         20.07112       19.83712       21.57825
O         20.78669       19.15253       20.58893
C         20.17445       20.36980       20.19996
H         21.43487       30.03913       24.67741
H         21.02049       31.58998       23.85230
H         22.05206       29.97898       22.25272
H         24.52461       30.16831       24.07702
H         24.44007       29.37762       22.43237
H         25.07814       28.09266       25.08092
H         25.06083       27.32296       23.42621
H         23.29601       26.56494       25.83268
H         24.75680       25.67769       25.25194
H         23.64237       25.26314       23.04554
H         22.16954       26.14015       23.62116
H         21.90003       24.47781       25.47412
H         23.37072       23.59673       24.89738
H         22.25487       23.18051       22.69215
H         20.78355       24.05589       23.26745
H         20.51280       22.39625       25.11810
H         21.96383       21.51403       24.59635
H         21.27385       19.63831       23.33679
H         21.90577       20.86224       22.14668
H         19.13748       19.30448       21.85624
H         19.36258       20.12325       19.48485
H         20.98436       21.08572       19.94593
H         23.73469       32.18865       22.95639

