%NProcShared=20
%Chk=hdde.chk
#n B3LYP/6-31G(d) Opt Pop=ESP scf=(direct,tight)

 HDDE_DEG0

0 1
C         18.60274       21.13247       20.02882
O         19.32551       20.93165       21.23078
C         18.12291       21.64072       21.33495
C         18.35221       23.12003       21.63396
O         18.59685       23.26526       23.01686
C         18.91774       24.60753       23.33143
C         20.43745       24.78432       23.40323
C         20.80940       26.21522       23.80932
C         22.33105       26.38756       23.88244
C         22.70368       27.81980       24.29088
C         24.21912       28.00682       24.38309
O         24.80203       27.78490       23.11495
C         26.21146       27.73656       23.21481
C         26.68032       26.28283       23.28781
O         26.68379       25.78051       24.59360
C         27.94962       26.03172       24.00793
H         18.23528       20.14191       19.68952
H         19.21757       21.78599       19.37478
H         17.34092       21.05300       21.86014
H         17.42216       23.66077       21.35038
H         19.21089       23.50303       21.03481
H         18.47506       24.83538       24.32458
H         18.46929       25.34495       22.62269
H         20.88166       24.55731       22.41008
H         20.84874       24.06860       24.14854
H         20.36608       26.44145       24.80425
H         20.39514       26.92795       23.06230
H         22.77143       26.15858       22.88715
H         22.74562       25.67439       24.62886
H         22.25891       28.04381       25.28530
H         22.29320       28.54108       23.55041
H         24.60794       27.29371       25.14565
H         24.41692       29.05237       24.70976
H         26.61699       28.36038       24.04833
H         26.62908       28.18225       22.28834
H         26.36435       25.52455       22.54100
H         28.44729       25.05050       23.86330
H         28.42521       26.84835       24.59088

