%NProcShared=20
%Chk=hdde_deg1_E2.chk
#n B3LYP/6-31G(d) Opt Pop=ESP scf=(direct,tight)

 HDDE_DEG1_E2

0 1
C         18.19968       23.76321       18.60639
O         18.07666       23.29791       19.93896
C         17.93267       24.67645       19.74186
C         19.11728       25.46287       20.29733
O         18.94429       25.60931       21.69120
C         20.07430       26.23033       22.27563
C         21.03265       25.16568       22.82862
C         22.22172       25.74828       23.61151
C         23.18116       26.57579       22.73820
C         24.36377       27.19969       23.50587
C         25.35430       26.19579       24.10983
O         24.75968       25.50041       25.18435
C         25.61970       24.46588       25.61437
C         25.05690       23.82108       26.88909
O         25.93839       22.83692       27.36685
C         23.66878       23.21688       26.66338
H         17.33077       23.37618       18.03496
H         19.24529       23.57652       18.28276
H         16.88520       25.00900       19.89983
H         19.11083       26.45997       19.80395
H         20.07031       24.93277       20.06596
H         19.71172       26.86016       23.11562
H         20.58732       26.92722       21.57464
H         21.41210       24.52666       22.00265
H         20.45470       24.51893       23.52466
H         22.77085       24.88120       24.02657
H         21.84239       26.36867       24.45260
H         22.62322       27.42349       22.29138
H         23.57117       25.94246       21.91165
H         23.98954       27.88054       24.30133
H         24.92915       27.81558       22.77230
H         26.22045       26.78042       24.49473
H         25.69380       25.50914       23.29967
H         26.62756       24.87080       25.86643
H         25.70901       23.68390       24.82577
H         24.96860       24.60737       27.67020
H         23.29559       22.75890       27.60378
H         22.94643       23.99520       26.33973
H         25.98636       22.11803       26.68269

