%NProcShared=20
%Chk=ipd.chk
#n B3LYP/6-31G(d) Opt Pop=ESP scf=(direct,tight)

 IPD_DEG0

0 1
C         22.88249       26.15024       24.48441
C         21.91539       26.56315       25.60253
C         22.42800       27.84924       26.33320
C         24.00032       27.92939       26.32057
C         24.74636       26.56318       26.30718
C         24.24715       25.69997       25.08441
N         22.32807       25.08264       23.65269
C         26.29875       26.77588       26.25061
N         26.77696       27.57716       25.11912
C         24.48809       25.78932       27.62704
C         21.84541       27.89080       27.76593
C         21.89643       29.11132       25.60642
H         23.04347       27.03977       23.83636
H         21.84929       25.69618       26.29075
H         20.88038       26.73117       25.23100
H         24.36640       28.61892       27.11289
H         24.28647       28.39631       25.35484
H         24.20628       24.63552       25.40712
H         24.95228       25.70072       24.23191
H         21.45021       25.41862       23.19385
H         22.09685       24.24979       24.24157
H         26.80691       25.78714       26.21704
H         26.63642       27.28551       27.18032
H         26.46355       28.57061       25.19237
H         26.50733       27.17355       24.19644
H         23.44468       25.46267       27.74851
H         24.77731       26.40331       28.50766
H         25.09031       24.85503       27.65160
H         22.16770       28.81594       28.29045
H         22.15465       27.03648       28.39071
H         20.73417       27.88273       27.73159
H         20.78496       29.12443       25.59476
H         22.24181       29.15010       24.55178
H         22.24644       30.03501       26.11724

